Program Version,EnergyPlus, Version 24.1.0-9d7789a3ac, YMD=2026.04.26 20:56,
   ** Warning ** No Timestep object found.  Number of TimeSteps in Hour defaulted to 4.
   ** Warning ** GetVertices: Roof/Ceiling is upside down! Tilt angle=[180.0], should be near 0, Surface="ROOF_MAIN", in Zone="DYNAMIC_ZONE".
   **   ~~~   ** Automatic fix is attempted.
   ** Warning ** GetHTSurfaceData: Surfaces with interface to Ground found but no "Ground Temperatures" were input.
   **   ~~~   ** Found first in surface=FLOOR_MAIN
   **   ~~~   ** Defaults, constant throughout the year of (18.0) will be used.
   ** Warning ** BuildingSurface:Detailed="FLOOR_MAIN", Sun Exposure="SUNEXPOSED".
   **   ~~~   ** ..This surface is not exposed to External Environment.  Sun exposure has no effect.
   ** Warning ** GetVertices: Floor is upside down! Tilt angle=[0.0], should be near 180, Surface="FLOOR_MAIN", in Zone="DYNAMIC_ZONE".
   **   ~~~   ** Automatic fix is attempted.
   ** Warning ** Indicated Zone Volume <= 0.0 for Zone=DYNAMIC_ZONE
   **   ~~~   ** The calculated Zone Volume was=-356.24
   **   ~~~   ** The simulation will continue with the Zone Volume set to 10.0 m3. 
   **   ~~~   ** ...use Output:Diagnostics,DisplayExtraWarnings; to show more details on individual zones.
   ** Severe  ** Problem in interior solar distribution calculation (CHKBKS)
   **   ~~~   **    Solar Distribution = FullInteriorExterior will not work in Zone=DYNAMIC_ZONE
   **   ~~~   **    because one or more of vertices, such as Vertex 3 of back surface=WALL_2, is in front of receiving surface=WALL_1
   **   ~~~   **    (Dot Product indicator=             93.4721)
   **   ~~~   **    Check surface geometry; if OK, use Solar Distribution = FullExterior instead. Use Output:Diagnostics, DisplayExtraWarnings; for more details.
   ** Severe  ** Problem in interior solar distribution calculation (CHKBKS)
   **   ~~~   **    Solar Distribution = FullInteriorExterior will not work in Zone=DYNAMIC_ZONE
   **   ~~~   **    because one or more of vertices, such as Vertex 1 of back surface=WALL_3, is in front of receiving surface=WALL_1
   **   ~~~   **    (Dot Product indicator=             93.4721)
   **   ~~~   **    Check surface geometry; if OK, use Solar Distribution = FullExterior instead. Use Output:Diagnostics, DisplayExtraWarnings; for more details.
   ** Severe  ** Problem in interior solar distribution calculation (CHKBKS)
   **   ~~~   **    Solar Distribution = FullInteriorExterior will not work in Zone=DYNAMIC_ZONE
   **   ~~~   **    because one or more of vertices, such as Vertex 1 of back surface=WALL_4, is in front of receiving surface=WALL_1
   **   ~~~   **    (Dot Product indicator=            502.9156)
   **   ~~~   **    Check surface geometry; if OK, use Solar Distribution = FullExterior instead. Use Output:Diagnostics, DisplayExtraWarnings; for more details.
   ** Severe  ** Problem in interior solar distribution calculation (CHKBKS)
   **   ~~~   **    Solar Distribution = FullInteriorExterior will not work in Zone=DYNAMIC_ZONE
   **   ~~~   **    because one or more of vertices, such as Vertex 1 of back surface=WALL_5, is in front of receiving surface=WALL_1
   **   ~~~   **    (Dot Product indicator=            550.9984)
   **   ~~~   **    Check surface geometry; if OK, use Solar Distribution = FullExterior instead. Use Output:Diagnostics, DisplayExtraWarnings; for more details.
   ** Severe  ** Problem in interior solar distribution calculation (CHKBKS)
   **   ~~~   **    Solar Distribution = FullInteriorExterior will not work in Zone=DYNAMIC_ZONE
   **   ~~~   **    because one or more of vertices, such as Vertex 1 of back surface=WALL_6, is in front of receiving surface=WALL_1
   **   ~~~   **    (Dot Product indicator=            205.9104)
   **   ~~~   **    Check surface geometry; if OK, use Solar Distribution = FullExterior instead. Use Output:Diagnostics, DisplayExtraWarnings; for more details.
   ** Severe  ** Problem in interior solar distribution calculation (CHKBKS)
   **   ~~~   **    Solar Distribution = FullInteriorExterior will not work in Zone=DYNAMIC_ZONE
   **   ~~~   **    because one or more of vertices, such as Vertex 3 of back surface=FLOOR_MAIN, is in front of receiving surface=WALL_1
   **   ~~~   **    (Dot Product indicator=             93.4721)
   **   ~~~   **    Check surface geometry; if OK, use Solar Distribution = FullExterior instead. Use Output:Diagnostics, DisplayExtraWarnings; for more details.
   ** Severe  ** Problem in interior solar distribution calculation (CHKBKS)
   **   ~~~   **    Solar Distribution = FullInteriorExterior will not work in Zone=DYNAMIC_ZONE
   **   ~~~   **    because one or more of vertices, such as Vertex 1 of back surface=ROOF_MAIN, is in front of receiving surface=WALL_1
   **   ~~~   **    (Dot Product indicator=            205.9104)
   **   ~~~   **    Check surface geometry; if OK, use Solar Distribution = FullExterior instead. Use Output:Diagnostics, DisplayExtraWarnings; for more details.
   ** Severe  ** Problem in interior solar distribution calculation (CHKBKS)
   **   ~~~   **    Solar Distribution = FullInteriorExterior will not work in Zone=DYNAMIC_ZONE
   **   ~~~   **    because one or more of vertices, such as Vertex 1 of back surface=WINDOW_2, is in front of receiving surface=WALL_1
   **   ~~~   **    (Dot Product indicator=             25.8350)
   **   ~~~   **    Check surface geometry; if OK, use Solar Distribution = FullExterior instead. Use Output:Diagnostics, DisplayExtraWarnings; for more details.
   ** Severe  ** Problem in interior solar distribution calculation (CHKBKS)
   **   ~~~   **    Solar Distribution = FullInteriorExterior will not work in Zone=DYNAMIC_ZONE
   **   ~~~   **    because one or more of vertices, such as Vertex 1 of back surface=WINDOW_3, is in front of receiving surface=WALL_1
   **   ~~~   **    (Dot Product indicator=            206.6400)
   **   ~~~   **    Check surface geometry; if OK, use Solar Distribution = FullExterior instead. Use Output:Diagnostics, DisplayExtraWarnings; for more details.
   ** Severe  ** Problem in interior solar distribution calculation (CHKBKS)
   **   ~~~   **    Solar Distribution = FullInteriorExterior will not work in Zone=DYNAMIC_ZONE
   **   ~~~   **    because one or more of vertices, such as Vertex 1 of back surface=WINDOW_4, is in front of receiving surface=WALL_1
   **   ~~~   **    (Dot Product indicator=            516.2058)
   **   ~~~   **    Check surface geometry; if OK, use Solar Distribution = FullExterior instead. Use Output:Diagnostics, DisplayExtraWarnings; for more details.
   ** Severe  ** Problem in interior solar distribution calculation (CHKBKS)
   **   ~~~   **    Solar Distribution = FullInteriorExterior will not work in Zone=DYNAMIC_ZONE
   **   ~~~   **    because one or more of vertices, such as Vertex 1 of back surface=WINDOW_5, is in front of receiving surface=WALL_1
   **   ~~~   **    (Dot Product indicator=            455.6184)
   **   ~~~   **    Check surface geometry; if OK, use Solar Distribution = FullExterior instead. Use Output:Diagnostics, DisplayExtraWarnings; for more details.
   ** Severe  ** Problem in interior solar distribution calculation (CHKBKS)
   **   ~~~   **    Solar Distribution = FullInteriorExterior will not work in Zone=DYNAMIC_ZONE
   **   ~~~   **    because one or more of vertices, such as Vertex 1 of back surface=WINDOW_6, is in front of receiving surface=WALL_1
   **   ~~~   **    (Dot Product indicator=            148.9972)
   **   ~~~   **    Check surface geometry; if OK, use Solar Distribution = FullExterior instead. Use Output:Diagnostics, DisplayExtraWarnings; for more details.
   ** Severe  ** Problem in interior solar distribution calculation (CHKBKS)
   **   ~~~   **    Solar Distribution = FullInteriorExterior will not work in Zone=DYNAMIC_ZONE
   **   ~~~   **    because one or more of vertices, such as Vertex 1 of back surface=WALL_1, is in front of receiving surface=WALL_2
   **   ~~~   **    (Dot Product indicator=             93.4721)
   **   ~~~   **    Check surface geometry; if OK, use Solar Distribution = FullExterior instead. Use Output:Diagnostics, DisplayExtraWarnings; for more details.
   ** Severe  ** Problem in interior solar distribution calculation (CHKBKS)
   **   ~~~   **    Solar Distribution = FullInteriorExterior will not work in Zone=DYNAMIC_ZONE
   **   ~~~   **    because one or more of vertices, such as Vertex 3 of back surface=WALL_4, is in front of receiving surface=WALL_2
   **   ~~~   **    (Dot Product indicator=             93.9775)
   **   ~~~   **    Check surface geometry; if OK, use Solar Distribution = FullExterior instead. Use Output:Diagnostics, DisplayExtraWarnings; for more details.
   ** Severe  ** Problem in interior solar distribution calculation (CHKBKS)
   **   ~~~   **    Solar Distribution = FullInteriorExterior will not work in Zone=DYNAMIC_ZONE
   **   ~~~   **    because one or more of vertices, such as Vertex 1 of back surface=WALL_5, is in front of receiving surface=WALL_2
   **   ~~~   **    (Dot Product indicator=             93.9775)
   **   ~~~   **    Check surface geometry; if OK, use Solar Distribution = FullExterior instead. Use Output:Diagnostics, DisplayExtraWarnings; for more details.
   ** Severe  ** Problem in interior solar distribution calculation (CHKBKS)
   **   ~~~   **    Solar Distribution = FullInteriorExterior will not work in Zone=DYNAMIC_ZONE
   **   ~~~   **    because one or more of vertices, such as Vertex 1 of back surface=WALL_6, is in front of receiving surface=WALL_2
   **   ~~~   **    (Dot Product indicator=             95.3794)
   **   ~~~   **    Check surface geometry; if OK, use Solar Distribution = FullExterior instead. Use Output:Diagnostics, DisplayExtraWarnings; for more details.
   ** Severe  ** Problem in interior solar distribution calculation (CHKBKS)
   **   ~~~   **    Solar Distribution = FullInteriorExterior will not work in Zone=DYNAMIC_ZONE
   **   ~~~   **    because one or more of vertices, such as Vertex 1 of back surface=FLOOR_MAIN, is in front of receiving surface=WALL_2
   **   ~~~   **    (Dot Product indicator=             93.4721)
   **   ~~~   **    Check surface geometry; if OK, use Solar Distribution = FullExterior instead. Use Output:Diagnostics, DisplayExtraWarnings; for more details.
   ** Severe  ** Problem in interior solar distribution calculation (CHKBKS)
   **   ~~~   **    Solar Distribution = FullInteriorExterior will not work in Zone=DYNAMIC_ZONE
   **   ~~~   **    because one or more of vertices, such as Vertex 1 of back surface=ROOF_MAIN, is in front of receiving surface=WALL_2
   **   ~~~   **    (Dot Product indicator=             95.3794)
   **   ~~~   **    Check surface geometry; if OK, use Solar Distribution = FullExterior instead. Use Output:Diagnostics, DisplayExtraWarnings; for more details.
   ** Severe  ** Problem in interior solar distribution calculation (CHKBKS)
   **   ~~~   **    Solar Distribution = FullInteriorExterior will not work in Zone=DYNAMIC_ZONE
   **   ~~~   **    because one or more of vertices, such as Vertex 1 of back surface=WINDOW_1, is in front of receiving surface=WALL_2
   **   ~~~   **    (Dot Product indicator=             67.6365)
   **   ~~~   **    Check surface geometry; if OK, use Solar Distribution = FullExterior instead. Use Output:Diagnostics, DisplayExtraWarnings; for more details.
   ** Severe  ** Problem in interior solar distribution calculation (CHKBKS)
   **   ~~~   **    Solar Distribution = FullInteriorExterior will not work in Zone=DYNAMIC_ZONE
   **   ~~~   **    because one or more of vertices, such as Vertex 1 of back surface=WINDOW_4, is in front of receiving surface=WALL_2
   **   ~~~   **    (Dot Product indicator=             25.6877)
   **   ~~~   **    Check surface geometry; if OK, use Solar Distribution = FullExterior instead. Use Output:Diagnostics, DisplayExtraWarnings; for more details.
   ** Severe  ** Problem in interior solar distribution calculation (CHKBKS)
   **   ~~~   **    Solar Distribution = FullInteriorExterior will not work in Zone=DYNAMIC_ZONE
   **   ~~~   **    because one or more of vertices, such as Vertex 1 of back surface=WINDOW_5, is in front of receiving surface=WALL_2
   **   ~~~   **    (Dot Product indicator=             94.3652)
   **   ~~~   **    Check surface geometry; if OK, use Solar Distribution = FullExterior instead. Use Output:Diagnostics, DisplayExtraWarnings; for more details.
   ** Severe  ** Problem in interior solar distribution calculation (CHKBKS)
   **   ~~~   **    Solar Distribution = FullInteriorExterior will not work in Zone=DYNAMIC_ZONE
   **   ~~~   **    because one or more of vertices, such as Vertex 1 of back surface=WINDOW_6, is in front of receiving surface=WALL_2
   **   ~~~   **    (Dot Product indicator=             94.8527)
   **   ~~~   **    Check surface geometry; if OK, use Solar Distribution = FullExterior instead. Use Output:Diagnostics, DisplayExtraWarnings; for more details.
   ** Severe  ** Problem in interior solar distribution calculation (CHKBKS)
   **   ~~~   **    Solar Distribution = FullInteriorExterior will not work in Zone=DYNAMIC_ZONE
   **   ~~~   **    because one or more of vertices, such as Vertex 1 of back surface=WALL_1, is in front of receiving surface=WALL_3
   **   ~~~   **    (Dot Product indicator=            409.0462)
   **   ~~~   **    Check surface geometry; if OK, use Solar Distribution = FullExterior instead. Use Output:Diagnostics, DisplayExtraWarnings; for more details.
   ** Severe  ** Problem in interior solar distribution calculation (CHKBKS)
   **   ~~~   **    Solar Distribution = FullInteriorExterior will not work in Zone=DYNAMIC_ZONE
   **   ~~~   **    because one or more of vertices, such as Vertex 3 of back surface=WALL_4, is in front of receiving surface=WALL_3
   **   ~~~   **    (Dot Product indicator=            413.6023)
   **   ~~~   **    Check surface geometry; if OK, use Solar Distribution = FullExterior instead. Use Output:Diagnostics, DisplayExtraWarnings; for more details.
   ** Severe  ** Problem in interior solar distribution calculation (CHKBKS)
   **   ~~~   **    Solar Distribution = FullInteriorExterior will not work in Zone=DYNAMIC_ZONE
   **   ~~~   **    because one or more of vertices, such as Vertex 1 of back surface=WALL_5, is in front of receiving surface=WALL_3
   **   ~~~   **    (Dot Product indicator=            413.6023)
   **   ~~~   **    Check surface geometry; if OK, use Solar Distribution = FullExterior instead. Use Output:Diagnostics, DisplayExtraWarnings; for more details.
   ** Severe  ** Problem in interior solar distribution calculation (CHKBKS)
   **   ~~~   **    Solar Distribution = FullInteriorExterior will not work in Zone=DYNAMIC_ZONE
   **   ~~~   **    because one or more of vertices, such as Vertex 1 of back surface=WALL_6, is in front of receiving surface=WALL_3
   **   ~~~   **    (Dot Product indicator=            418.2765)
   **   ~~~   **    Check surface geometry; if OK, use Solar Distribution = FullExterior instead. Use Output:Diagnostics, DisplayExtraWarnings; for more details.
   ** Severe  ** Problem in interior solar distribution calculation (CHKBKS)
   **   ~~~   **    Solar Distribution = FullInteriorExterior will not work in Zone=DYNAMIC_ZONE
   **   ~~~   **    because one or more of vertices, such as Vertex 1 of back surface=FLOOR_MAIN, is in front of receiving surface=WALL_3
   **   ~~~   **    (Dot Product indicator=            409.0462)
   **   ~~~   **    Check surface geometry; if OK, use Solar Distribution = FullExterior instead. Use Output:Diagnostics, DisplayExtraWarnings; for more details.
   ** Severe  ** Problem in interior solar distribution calculation (CHKBKS)
   **   ~~~   **    Solar Distribution = FullInteriorExterior will not work in Zone=DYNAMIC_ZONE
   **   ~~~   **    because one or more of vertices, such as Vertex 1 of back surface=ROOF_MAIN, is in front of receiving surface=WALL_3
   **   ~~~   **    (Dot Product indicator=            418.2765)
   **   ~~~   **    Check surface geometry; if OK, use Solar Distribution = FullExterior instead. Use Output:Diagnostics, DisplayExtraWarnings; for more details.
   ** Severe  ** Problem in interior solar distribution calculation (CHKBKS)
   **   ~~~   **    Solar Distribution = FullInteriorExterior will not work in Zone=DYNAMIC_ZONE
   **   ~~~   **    because one or more of vertices, such as Vertex 1 of back surface=WINDOW_1, is in front of receiving surface=WALL_3
   **   ~~~   **    (Dot Product indicator=            295.8764)
   **   ~~~   **    Check surface geometry; if OK, use Solar Distribution = FullExterior instead. Use Output:Diagnostics, DisplayExtraWarnings; for more details.
   ** Severe  ** Problem in interior solar distribution calculation (CHKBKS)
   **   ~~~   **    Solar Distribution = FullInteriorExterior will not work in Zone=DYNAMIC_ZONE
   **   ~~~   **    because one or more of vertices, such as Vertex 1 of back surface=WINDOW_4, is in front of receiving surface=WALL_3
   **   ~~~   **    (Dot Product indicator=            114.3186)
   **   ~~~   **    Check surface geometry; if OK, use Solar Distribution = FullExterior instead. Use Output:Diagnostics, DisplayExtraWarnings; for more details.
   ** Severe  ** Problem in interior solar distribution calculation (CHKBKS)
   **   ~~~   **    Solar Distribution = FullInteriorExterior will not work in Zone=DYNAMIC_ZONE
   **   ~~~   **    because one or more of vertices, such as Vertex 1 of back surface=WINDOW_5, is in front of receiving surface=WALL_3
   **   ~~~   **    (Dot Product indicator=            414.8950)
   **   ~~~   **    Check surface geometry; if OK, use Solar Distribution = FullExterior instead. Use Output:Diagnostics, DisplayExtraWarnings; for more details.
   ** Severe  ** Problem in interior solar distribution calculation (CHKBKS)
   **   ~~~   **    Solar Distribution = FullInteriorExterior will not work in Zone=DYNAMIC_ZONE
   **   ~~~   **    because one or more of vertices, such as Vertex 1 of back surface=WINDOW_6, is in front of receiving surface=WALL_3
   **   ~~~   **    (Dot Product indicator=            415.7273)
   **   ~~~   **    Check surface geometry; if OK, use Solar Distribution = FullExterior instead. Use Output:Diagnostics, DisplayExtraWarnings; for more details.
   ** Severe  ** Problem in interior solar distribution calculation (CHKBKS)
   **   ~~~   **    Solar Distribution = FullInteriorExterior will not work in Zone=DYNAMIC_ZONE
   **   ~~~   **    because one or more of vertices, such as Vertex 1 of back surface=WALL_1, is in front of receiving surface=WALL_4
   **   ~~~   **    (Dot Product indicator=            556.0598)
   **   ~~~   **    Check surface geometry; if OK, use Solar Distribution = FullExterior instead. Use Output:Diagnostics, DisplayExtraWarnings; for more details.
   ** Severe  ** Problem in interior solar distribution calculation (CHKBKS)
   **   ~~~   **    Solar Distribution = FullInteriorExterior will not work in Zone=DYNAMIC_ZONE
   **   ~~~   **    because one or more of vertices, such as Vertex 1 of back surface=WALL_2, is in front of receiving surface=WALL_4
   **   ~~~   **    (Dot Product indicator=            507.9771)
   **   ~~~   **    Check surface geometry; if OK, use Solar Distribution = FullExterior instead. Use Output:Diagnostics, DisplayExtraWarnings; for more details.
   ** Severe  ** Problem in interior solar distribution calculation (CHKBKS)
   **   ~~~   **    Solar Distribution = FullInteriorExterior will not work in Zone=DYNAMIC_ZONE
   **   ~~~   **    because one or more of vertices, such as Vertex 1 of back surface=WALL_3, is in front of receiving surface=WALL_4
   **   ~~~   **    (Dot Product indicator=            413.6023)
   **   ~~~   **    Check surface geometry; if OK, use Solar Distribution = FullExterior instead. Use Output:Diagnostics, DisplayExtraWarnings; for more details.
   ** Severe  ** Problem in interior solar distribution calculation (CHKBKS)
   **   ~~~   **    Solar Distribution = FullInteriorExterior will not work in Zone=DYNAMIC_ZONE
   **   ~~~   **    because one or more of vertices, such as Vertex 3 of back surface=WALL_5, is in front of receiving surface=WALL_4
   **   ~~~   **    (Dot Product indicator=            349.1420)
   **   ~~~   **    Check surface geometry; if OK, use Solar Distribution = FullExterior instead. Use Output:Diagnostics, DisplayExtraWarnings; for more details.
   ** Severe  ** Problem in interior solar distribution calculation (CHKBKS)
   **   ~~~   **    Solar Distribution = FullInteriorExterior will not work in Zone=DYNAMIC_ZONE
   **   ~~~   **    because one or more of vertices, such as Vertex 1 of back surface=WALL_6, is in front of receiving surface=WALL_4
   **   ~~~   **    (Dot Product indicator=            349.1420)
   **   ~~~   **    Check surface geometry; if OK, use Solar Distribution = FullExterior instead. Use Output:Diagnostics, DisplayExtraWarnings; for more details.
   ** Severe  ** Problem in interior solar distribution calculation (CHKBKS)
   **   ~~~   **    Solar Distribution = FullInteriorExterior will not work in Zone=DYNAMIC_ZONE
   **   ~~~   **    because one or more of vertices, such as Vertex 1 of back surface=FLOOR_MAIN, is in front of receiving surface=WALL_4
   **   ~~~   **    (Dot Product indicator=            556.0598)
   **   ~~~   **    Check surface geometry; if OK, use Solar Distribution = FullExterior instead. Use Output:Diagnostics, DisplayExtraWarnings; for more details.
   ** Severe  ** Problem in interior solar distribution calculation (CHKBKS)
   **   ~~~   **    Solar Distribution = FullInteriorExterior will not work in Zone=DYNAMIC_ZONE
   **   ~~~   **    because one or more of vertices, such as Vertex 1 of back surface=ROOF_MAIN, is in front of receiving surface=WALL_4
   **   ~~~   **    (Dot Product indicator=            349.1420)
   **   ~~~   **    Check surface geometry; if OK, use Solar Distribution = FullExterior instead. Use Output:Diagnostics, DisplayExtraWarnings; for more details.
   ** Severe  ** Problem in interior solar distribution calculation (CHKBKS)
   **   ~~~   **    Solar Distribution = FullInteriorExterior will not work in Zone=DYNAMIC_ZONE
   **   ~~~   **    because one or more of vertices, such as Vertex 1 of back surface=WINDOW_1, is in front of receiving surface=WALL_4
   **   ~~~   **    (Dot Product indicator=            542.7698)
   **   ~~~   **    Check surface geometry; if OK, use Solar Distribution = FullExterior instead. Use Output:Diagnostics, DisplayExtraWarnings; for more details.
   ** Severe  ** Problem in interior solar distribution calculation (CHKBKS)
   **   ~~~   **    Solar Distribution = FullInteriorExterior will not work in Zone=DYNAMIC_ZONE
   **   ~~~   **    because one or more of vertices, such as Vertex 1 of back surface=WINDOW_2, is in front of receiving surface=WALL_4
   **   ~~~   **    (Dot Product indicator=            481.8924)
   **   ~~~   **    Check surface geometry; if OK, use Solar Distribution = FullExterior instead. Use Output:Diagnostics, DisplayExtraWarnings; for more details.
   ** Severe  ** Problem in interior solar distribution calculation (CHKBKS)
   **   ~~~   **    Solar Distribution = FullInteriorExterior will not work in Zone=DYNAMIC_ZONE
   **   ~~~   **    because one or more of vertices, such as Vertex 1 of back surface=WINDOW_3, is in front of receiving surface=WALL_4
   **   ~~~   **    (Dot Product indicator=            299.2848)
   **   ~~~   **    Check surface geometry; if OK, use Solar Distribution = FullExterior instead. Use Output:Diagnostics, DisplayExtraWarnings; for more details.
   ** Severe  ** Problem in interior solar distribution calculation (CHKBKS)
   **   ~~~   **    Solar Distribution = FullInteriorExterior will not work in Zone=DYNAMIC_ZONE
   **   ~~~   **    because one or more of vertices, such as Vertex 1 of back surface=WINDOW_5, is in front of receiving surface=WALL_4
   **   ~~~   **    (Dot Product indicator=             96.5006)
   **   ~~~   **    Check surface geometry; if OK, use Solar Distribution = FullExterior instead. Use Output:Diagnostics, DisplayExtraWarnings; for more details.
   ** Severe  ** Problem in interior solar distribution calculation (CHKBKS)
   **   ~~~   **    Solar Distribution = FullInteriorExterior will not work in Zone=DYNAMIC_ZONE
   **   ~~~   **    because one or more of vertices, such as Vertex 1 of back surface=WINDOW_6, is in front of receiving surface=WALL_4
   **   ~~~   **    (Dot Product indicator=            406.3338)
   **   ~~~   **    Check surface geometry; if OK, use Solar Distribution = FullExterior instead. Use Output:Diagnostics, DisplayExtraWarnings; for more details.
   ** Severe  ** Problem in interior solar distribution calculation (CHKBKS)
   **   ~~~   **    Solar Distribution = FullInteriorExterior will not work in Zone=DYNAMIC_ZONE
   **   ~~~   **    because one or more of vertices, such as Vertex 1 of back surface=WALL_1, is in front of receiving surface=WALL_5
   **   ~~~   **    (Dot Product indicator=             10.1301)
   **   ~~~   **    Check surface geometry; if OK, use Solar Distribution = FullExterior instead. Use Output:Diagnostics, DisplayExtraWarnings; for more details.
   ** Severe  ** Problem in interior solar distribution calculation (CHKBKS)
   **   ~~~   **    Solar Distribution = FullInteriorExterior will not work in Zone=DYNAMIC_ZONE
   **   ~~~   **    because one or more of vertices, such as Vertex 1 of back surface=WALL_2, is in front of receiving surface=WALL_5
   **   ~~~   **    (Dot Product indicator=            355.2181)
   **   ~~~   **    Check surface geometry; if OK, use Solar Distribution = FullExterior instead. Use Output:Diagnostics, DisplayExtraWarnings; for more details.
   ** Severe  ** Problem in interior solar distribution calculation (CHKBKS)
   **   ~~~   **    Solar Distribution = FullInteriorExterior will not work in Zone=DYNAMIC_ZONE
   **   ~~~   **    because one or more of vertices, such as Vertex 1 of back surface=WALL_3, is in front of receiving surface=WALL_5
   **   ~~~   **    (Dot Product indicator=            353.8162)
   **   ~~~   **    Check surface geometry; if OK, use Solar Distribution = FullExterior instead. Use Output:Diagnostics, DisplayExtraWarnings; for more details.
   ** Severe  ** Problem in interior solar distribution calculation (CHKBKS)
   **   ~~~   **    Solar Distribution = FullInteriorExterior will not work in Zone=DYNAMIC_ZONE
   **   ~~~   **    because one or more of vertices, such as Vertex 1 of back surface=WALL_4, is in front of receiving surface=WALL_5
   **   ~~~   **    (Dot Product indicator=            349.1420)
   **   ~~~   **    Check surface geometry; if OK, use Solar Distribution = FullExterior instead. Use Output:Diagnostics, DisplayExtraWarnings; for more details.
   ** Severe  ** Problem in interior solar distribution calculation (CHKBKS)
   **   ~~~   **    Solar Distribution = FullInteriorExterior will not work in Zone=DYNAMIC_ZONE
   **   ~~~   **    because one or more of vertices, such as Vertex 3 of back surface=WALL_6, is in front of receiving surface=WALL_5
   **   ~~~   **    (Dot Product indicator=             10.1301)
   **   ~~~   **    Check surface geometry; if OK, use Solar Distribution = FullExterior instead. Use Output:Diagnostics, DisplayExtraWarnings; for more details.
   ** Severe  ** Problem in interior solar distribution calculation (CHKBKS)
   **   ~~~   **    Solar Distribution = FullInteriorExterior will not work in Zone=DYNAMIC_ZONE
   **   ~~~   **    because one or more of vertices, such as Vertex 1 of back surface=FLOOR_MAIN, is in front of receiving surface=WALL_5
   **   ~~~   **    (Dot Product indicator=             10.1301)
   **   ~~~   **    Check surface geometry; if OK, use Solar Distribution = FullExterior instead. Use Output:Diagnostics, DisplayExtraWarnings; for more details.
   ** Severe  ** Problem in interior solar distribution calculation (CHKBKS)
   **   ~~~   **    Solar Distribution = FullInteriorExterior will not work in Zone=DYNAMIC_ZONE
   **   ~~~   **    because one or more of vertices, such as Vertex 3 of back surface=ROOF_MAIN, is in front of receiving surface=WALL_5
   **   ~~~   **    (Dot Product indicator=            349.1420)
   **   ~~~   **    Check surface geometry; if OK, use Solar Distribution = FullExterior instead. Use Output:Diagnostics, DisplayExtraWarnings; for more details.
   ** Severe  ** Problem in interior solar distribution calculation (CHKBKS)
   **   ~~~   **    Solar Distribution = FullInteriorExterior will not work in Zone=DYNAMIC_ZONE
   **   ~~~   **    because one or more of vertices, such as Vertex 1 of back surface=WINDOW_1, is in front of receiving surface=WALL_5
   **   ~~~   **    (Dot Product indicator=            105.5122)
   **   ~~~   **    Check surface geometry; if OK, use Solar Distribution = FullExterior instead. Use Output:Diagnostics, DisplayExtraWarnings; for more details.
   ** Severe  ** Problem in interior solar distribution calculation (CHKBKS)
   **   ~~~   **    Solar Distribution = FullInteriorExterior will not work in Zone=DYNAMIC_ZONE
   **   ~~~   **    because one or more of vertices, such as Vertex 1 of back surface=WINDOW_2, is in front of receiving surface=WALL_5
   **   ~~~   **    (Dot Product indicator=            354.8320)
   **   ~~~   **    Check surface geometry; if OK, use Solar Distribution = FullExterior instead. Use Output:Diagnostics, DisplayExtraWarnings; for more details.
   ** Severe  ** Problem in interior solar distribution calculation (CHKBKS)
   **   ~~~   **    Solar Distribution = FullInteriorExterior will not work in Zone=DYNAMIC_ZONE
   **   ~~~   **    because one or more of vertices, such as Vertex 1 of back surface=WINDOW_3, is in front of receiving surface=WALL_5
   **   ~~~   **    (Dot Product indicator=            352.5246)
   **   ~~~   **    Check surface geometry; if OK, use Solar Distribution = FullExterior instead. Use Output:Diagnostics, DisplayExtraWarnings; for more details.
   ** Severe  ** Problem in interior solar distribution calculation (CHKBKS)
   **   ~~~   **    Solar Distribution = FullInteriorExterior will not work in Zone=DYNAMIC_ZONE
   **   ~~~   **    because one or more of vertices, such as Vertex 1 of back surface=WINDOW_4, is in front of receiving surface=WALL_5
   **   ~~~   **    (Dot Product indicator=            252.6400)
   **   ~~~   **    Check surface geometry; if OK, use Solar Distribution = FullExterior instead. Use Output:Diagnostics, DisplayExtraWarnings; for more details.
   ** Severe  ** Problem in interior solar distribution calculation (CHKBKS)
   **   ~~~   **    Solar Distribution = FullInteriorExterior will not work in Zone=DYNAMIC_ZONE
   **   ~~~   **    because one or more of vertices, such as Vertex 1 of back surface=WINDOW_6, is in front of receiving surface=WALL_5
   **   ~~~   **    (Dot Product indicator=              2.7983)
   **   ~~~   **    Check surface geometry; if OK, use Solar Distribution = FullExterior instead. Use Output:Diagnostics, DisplayExtraWarnings; for more details.
   ** Severe  ** Problem in interior solar distribution calculation (CHKBKS)
   **   ~~~   **    Solar Distribution = FullInteriorExterior will not work in Zone=DYNAMIC_ZONE
   **   ~~~   **    because one or more of vertices, such as Vertex 3 of back surface=WALL_1, is in front of receiving surface=WALL_6
   **   ~~~   **    (Dot Product indicator=            205.9104)
   **   ~~~   **    Check surface geometry; if OK, use Solar Distribution = FullExterior instead. Use Output:Diagnostics, DisplayExtraWarnings; for more details.
   ** Severe  ** Problem in interior solar distribution calculation (CHKBKS)
   **   ~~~   **    Solar Distribution = FullInteriorExterior will not work in Zone=DYNAMIC_ZONE
   **   ~~~   **    because one or more of vertices, such as Vertex 1 of back surface=WALL_2, is in front of receiving surface=WALL_6
   **   ~~~   **    (Dot Product indicator=            205.9104)
   **   ~~~   **    Check surface geometry; if OK, use Solar Distribution = FullExterior instead. Use Output:Diagnostics, DisplayExtraWarnings; for more details.
   ** Severe  ** Problem in interior solar distribution calculation (CHKBKS)
   **   ~~~   **    Solar Distribution = FullInteriorExterior will not work in Zone=DYNAMIC_ZONE
   **   ~~~   **    because one or more of vertices, such as Vertex 1 of back surface=WALL_3, is in front of receiving surface=WALL_6
   **   ~~~   **    (Dot Product indicator=            207.8177)
   **   ~~~   **    Check surface geometry; if OK, use Solar Distribution = FullExterior instead. Use Output:Diagnostics, DisplayExtraWarnings; for more details.
   ** Severe  ** Problem in interior solar distribution calculation (CHKBKS)
   **   ~~~   **    Solar Distribution = FullInteriorExterior will not work in Zone=DYNAMIC_ZONE
   **   ~~~   **    because one or more of vertices, such as Vertex 1 of back surface=WALL_4, is in front of receiving surface=WALL_6
   **   ~~~   **    (Dot Product indicator=            217.0480)
   **   ~~~   **    Check surface geometry; if OK, use Solar Distribution = FullExterior instead. Use Output:Diagnostics, DisplayExtraWarnings; for more details.
   ** Severe  ** Problem in interior solar distribution calculation (CHKBKS)
   **   ~~~   **    Solar Distribution = FullInteriorExterior will not work in Zone=DYNAMIC_ZONE
   **   ~~~   **    because one or more of vertices, such as Vertex 1 of back surface=WALL_5, is in front of receiving surface=WALL_6
   **   ~~~   **    (Dot Product indicator=             10.1301)
   **   ~~~   **    Check surface geometry; if OK, use Solar Distribution = FullExterior instead. Use Output:Diagnostics, DisplayExtraWarnings; for more details.
   ** Severe  ** Problem in interior solar distribution calculation (CHKBKS)
   **   ~~~   **    Solar Distribution = FullInteriorExterior will not work in Zone=DYNAMIC_ZONE
   **   ~~~   **    because one or more of vertices, such as Vertex 2 of back surface=FLOOR_MAIN, is in front of receiving surface=WALL_6
   **   ~~~   **    (Dot Product indicator=            205.9104)
   **   ~~~   **    Check surface geometry; if OK, use Solar Distribution = FullExterior instead. Use Output:Diagnostics, DisplayExtraWarnings; for more details.
   ** Severe  ** Problem in interior solar distribution calculation (CHKBKS)
   **   ~~~   **    Solar Distribution = FullInteriorExterior will not work in Zone=DYNAMIC_ZONE
   **   ~~~   **    because one or more of vertices, such as Vertex 2 of back surface=ROOF_MAIN, is in front of receiving surface=WALL_6
   **   ~~~   **    (Dot Product indicator=             10.1301)
   **   ~~~   **    Check surface geometry; if OK, use Solar Distribution = FullExterior instead. Use Output:Diagnostics, DisplayExtraWarnings; for more details.
   ** Severe  ** Problem in interior solar distribution calculation (CHKBKS)
   **   ~~~   **    Solar Distribution = FullInteriorExterior will not work in Zone=DYNAMIC_ZONE
   **   ~~~   **    because one or more of vertices, such as Vertex 1 of back surface=WINDOW_1, is in front of receiving surface=WALL_6
   **   ~~~   **    (Dot Product indicator=             56.9135)
   **   ~~~   **    Check surface geometry; if OK, use Solar Distribution = FullExterior instead. Use Output:Diagnostics, DisplayExtraWarnings; for more details.
   ** Severe  ** Problem in interior solar distribution calculation (CHKBKS)
   **   ~~~   **    Solar Distribution = FullInteriorExterior will not work in Zone=DYNAMIC_ZONE
   **   ~~~   **    because one or more of vertices, such as Vertex 1 of back surface=WINDOW_2, is in front of receiving surface=WALL_6
   **   ~~~   **    (Dot Product indicator=            206.4384)
   **   ~~~   **    Check surface geometry; if OK, use Solar Distribution = FullExterior instead. Use Output:Diagnostics, DisplayExtraWarnings; for more details.
   ** Severe  ** Problem in interior solar distribution calculation (CHKBKS)
   **   ~~~   **    Solar Distribution = FullInteriorExterior will not work in Zone=DYNAMIC_ZONE
   **   ~~~   **    because one or more of vertices, such as Vertex 1 of back surface=WINDOW_3, is in front of receiving surface=WALL_6
   **   ~~~   **    (Dot Product indicator=            210.3692)
   **   ~~~   **    Check surface geometry; if OK, use Solar Distribution = FullExterior instead. Use Output:Diagnostics, DisplayExtraWarnings; for more details.
   ** Severe  ** Problem in interior solar distribution calculation (CHKBKS)
   **   ~~~   **    Solar Distribution = FullInteriorExterior will not work in Zone=DYNAMIC_ZONE
   **   ~~~   **    because one or more of vertices, such as Vertex 1 of back surface=WINDOW_4, is in front of receiving surface=WALL_6
   **   ~~~   **    (Dot Product indicator=            159.8564)
   **   ~~~   **    Check surface geometry; if OK, use Solar Distribution = FullExterior instead. Use Output:Diagnostics, DisplayExtraWarnings; for more details.
   ** Severe  ** Problem in interior solar distribution calculation (CHKBKS)
   **   ~~~   **    Solar Distribution = FullInteriorExterior will not work in Zone=DYNAMIC_ZONE
   **   ~~~   **    because one or more of vertices, such as Vertex 1 of back surface=WINDOW_5, is in front of receiving surface=WALL_6
   **   ~~~   **    (Dot Product indicator=              7.3298)
   **   ~~~   **    Check surface geometry; if OK, use Solar Distribution = FullExterior instead. Use Output:Diagnostics, DisplayExtraWarnings; for more details.
   ************* Testing Individual Branch Integrity
   ************* All Branches passed integrity testing
   ************* Testing Individual Supply Air Path Integrity
   ************* All Supply Air Paths passed integrity testing
   ************* Testing Individual Return Air Path Integrity
   ************* All Return Air Paths passed integrity testing
   ************* No node connection errors were found.
   ************* Beginning Simulation
   ************* Simulation Error Summary *************
   ************* EnergyPlus Warmup Error Summary. During Warmup: 0 Warning; 0 Severe Errors.
   ************* EnergyPlus Sizing Error Summary. During Sizing: 0 Warning; 0 Severe Errors.
   ************* EnergyPlus Completed Successfully-- 6 Warning; 68 Severe Errors; Elapsed Time=00hr 00min  0.38sec
